[General]
include parameters/wsn.ini

sim-time-limit = 100s
seed-set={repetition}

wsn.field = 30,30	# meters
wsn.num-nodes = 9
wsn.deployment=(grid 3 3)

wsn.wireless-channel.sigma = 0
wsn.wireless-channel.bidirectional-sigma = 0

wsn.node.**.radio.parameters-file = parameters/CC2420.lisp
wsn.node.**.radio.initial-tx-output-power = -5 # dBm

wsn.node.*.application.typename = connectivity-map
wsn.node.*.mac.typename = bypass-mac
wsn.node.*.routing.typename = bypass-routing
wsn.node.*.application.latency.result-recording-modes = :none

[vary-tx-power]
wsn.node.**.radio.initial-tx-output-power = {tx-power 0 -1 -3 -5}

[vary-sigma]
wsn.wireless-channel.sigma = {sigma 0 1 3 5}
