[General]
include parameters/wsn.ini

sim-time-limit = 100s
seed-set={repetition}

wsn.field = 60,60	# meters
wsn.num-nodes = 16
wsn.deployment=(grid 4 4)

include parameters/ideal-wireless-channel.ini
wsn.node.**.radio.parameters-file = parameters/CC2420.lisp
wsn.node.**.radio.mode = ideal

include parameters/CSMA.ini
wsn.node.**.application.typename=simple-aggregation
**.sink-network-address = 3
